/*--------------------------------*- C++ -*----------------------------------*\
| =========                 |                                                 |
| \\      /  F ield         | OpenFOAM: The Open Source CFD Toolbox           |
|  \\    /   O peration     | Version:  4.x                                   |
|   \\  /    A nd           | Web:      www.OpenFOAM.org                      |
|    \\/     M anipulation  |                                                 |
\*---------------------------------------------------------------------------*/
FoamFile
{
    version     2.0;
    format      ascii;
    class       volVectorField;
    location    "0";
    object      U;
}
// * * * * * * * * * * * * * * * * * * * * * * * * * * * * * * * * * * * * * //

dimensions      [0 1 -1 0 0 0 0];

internalField  uniform (22.10902 6.33966 0.0 );

boundaryField
{
    "(inlet|top|bottom|outlet)"
    {

        type            freestream;
        freestreamValue $internalField;
    }

    side
    {
        type            slip;
    }

    wall
    {
        type            noSlip;
    }

    symmetry
    {
        type            symmetry;
    }

}


// ************************************************************************* //
