/*--------------------------------*- C++ -*----------------------------------*\
| =========                 |                                                 |
| \\      /  F ield         | OpenFOAM: The Open Source CFD Toolbox           |
|  \\    /   O peration     | Version:  4.x                                   |
|   \\  /    A nd           | Web:      www.OpenFOAM.org                      |
|    \\/     M anipulation  |                                                 |
\*---------------------------------------------------------------------------*/
FoamFile
{
    version     2.0;
    format      ascii;
    class       volScalarField;
    object      k;
}
// * * * * * * * * * * * * * * * * * * * * * * * * * * * * * * * * * * * * * //

dimensions      [0 2 -2 0 0 0 0];

internalField   uniform 0.02;

boundaryField
{
    "(inlet|top|bottom|outlet)"
    {
        type            freestream;
        freestreamValue $internalField;
    }

    side
    {
        type            slip;
    }

    wall
    {
        //type            kqRWallFunction;
        //value           $internalField;

        //type            kLowReWallFunction;
        //value           $internalField;

        type            fixedValue;
        value           uniform 1e-12;
    }

    symmetry
    {
        type            symmetry;
    }
}


// ************************************************************************* //
