/*--------------------------------*- C++ -*----------------------------------*\
  =========                 |
  \\      /  F ield         | OpenFOAM: The Open Source CFD Toolbox
   \\    /   O peration     | Website:  https://openfoam.org
    \\  /    A nd           | Version:  8
     \\/     M anipulation  |
\*---------------------------------------------------------------------------*/
FoamFile
{
    version     2.0;
    format      ascii;
    class       volScalarField;
    object      k;
}
// * * * * * * * * * * * * * * * * * * * * * * * * * * * * * * * * * * * * * //

dimensions      [0 2 -2 0 0 0 0];

internalField   uniform 0.01;

boundaryField
{
    "(INLET|BOTTOM)"
    {
        type            fixedValue;
        value           $internalField;
    }

    "(OUTLET|TOP)"
    {
        type            inletOutlet;
        inletValue      $internalField;
        value           $internalField;
    }

    Wing.stl
    {
        type            kqRWallFunction;
        value           $internalField;
    }

    SYMMETRY
    {
        type            symmetryPlane;
    }

    WALL
    {
        type            slip;
        //type            symmetryPlane;
    }

}


// ************************************************************************* //
