/*--------------------------------*- C++ -*----------------------------------*\
| =========                 |                                                 |
| \\      /  F ield         | OpenFOAM: The Open Source CFD Toolbox           |
|  \\    /   O peration     | Version:  4.x                                   |
|   \\  /    A nd           | Web:      www.OpenFOAM.org                      |
|    \\/     M anipulation  |                                                 |
\*---------------------------------------------------------------------------*/
FoamFile
{
    version     2.0;
    format      ascii;
    class       volScalarField;
    object      omega;
}
// * * * * * * * * * * * * * * * * * * * * * * * * * * * * * * * * * * * * * //

dimensions      [0 0 -1 0 0 0 0];

internalField   uniform 127.25;

boundaryField
{
    "(inlet|far_side)"
    {
        type            fixedValue;
        value           $internalField;

        //type            freestream;
        //freestreamValue $internalField;
    }

    outlet
    {
        type            inletOutlet;
        inletValue      $internalField;
        value           0;

        //type            freestream;
        //freestreamValue $internalField;
    }

    "(wing_surface|wing_tip)"
    {
        type            omegaWallFunction;
        value           $internalField;
    }

    near_side
    {
        type            symmetryPlane;
    }

}


// ************************************************************************* //
