/*--------------------------------*- C++ -*----------------------------------*\
  =========                 |
  \\      /  F ield         | OpenFOAM: The Open Source CFD Toolbox
   \\    /   O peration     | Website:  https://openfoam.org
    \\  /    A nd           | Version:  8
     \\/     M anipulation  |
\*---------------------------------------------------------------------------*/
FoamFile
{
    version     2.0;
    format      ascii;
    class       dictionary;
    object      fvSchemes;
}
// * * * * * * * * * * * * * * * * * * * * * * * * * * * * * * * * * * * * * //

ddtSchemes
{
    default         CrankNicolson 0.7;
}

gradSchemes
{
    default         cellLimited Gauss linear 0.5;
    grad(U)         cellLimited Gauss linear 1.0;

}

divSchemes
{
    default                         none;
    div(phi,U)                      Gauss linearUpwind grad(U);
    div(phi,k)                      Gauss linearUpwind default;
    div(phi,omega)                  Gauss linearUpwind default;
    div((nuEff*dev2(T(grad(U)))))   Gauss linear;
}

laplacianSchemes
{
    default         Gauss linear limited 0.5;
}

interpolationSchemes
{
    default         linear;
}

snGradSchemes
{
    default         limited 0.5;
}

wallDist
{
    method meshWave;
}


// ************************************************************************* //
